tests/data/dist/dgs/feeder_3ph_v7.dgs
********************************************************************************
* Hand-authored DGS 7.0 distribution feeder, original to this repository.
* Not derived from any DIgSILENT-supplied example. See README.md.
********************************************************************************

$$General;FID(a:40);Descr(a:40);Val(a:40)
1;Version;7.0


$$ElmNet;FID(a:40);OP(a:1);loc_name(a:40);fold_id(p);frnom(r)
Grid;C;Feeder;;50


$$ElmTerm;FID(a:40);OP(a:1);loc_name(a:40);fold_id(p);iUsage(i);outserv(i);uknom(r)
Src;C;Src;Grid;0;0;20
Mid;C;Mid;Grid;0;0;20
MidB;C;MidB;Grid;0;0;20
Lv;C;Lv;Grid;0;0;0.4


$$ElmXnet;FID(a:40);OP(a:1);loc_name(a:40);fold_id(p);bustp(a:2);usetp(r);pgini(r);qgini(r);phiini(r);snss(r)
Ext;C;External Grid;Grid;SL;1.02;0;0;0;500


$$TypLne;FID(a:40);OP(a:1);loc_name(a:40);fold_id(p);cline(r);cline0(r);nlnph(i);nneutral(i);rline(r);rline0(r);sline(r);uline(r);xline(r);xline0(r)
OH20;C;OH 20kV;Types;0.01;0.005;3;0;0.2;0.5;0.4;20;0.3;0.9


$$ElmLne;FID(a:40);OP(a:1);loc_name(a:40);fold_id(p);typ_id(p);dline(r);fline(r);nlnum(i);outserv(i)
Ln1;C;Ln1;Grid;OH20;2.5;1;1;0


$$TypTr2;FID(a:40);OP(a:1);loc_name(a:40);fold_id(p);curmg(r);dutap(r);frnom(r);nntap0(i);nt2ag(r);ntpmn(i);ntpmx(i);pcutr(r);pfe(r);phitr(r);strn(r);tap_side(i);tr2cn_h(a:2);tr2cn_l(a:2);uktr(r);utrn_h(r);utrn_l(r)
DT630;C;630kVA Dyn5;Types;0.5;2.5;50;0;5;-2;2;6.5;1.2;0;0.63;1;D;YN;4;20;0.4


$$ElmTr2;FID(a:40);OP(a:1);loc_name(a:40);fold_id(p);typ_id(p);nntap(i);ntnum(i);ratfac(r);outserv(i)
Tr1;C;Tr1;Grid;DT630;0;1;1;0


$$ElmLod;FID(a:40);OP(a:1);loc_name(a:40);fold_id(p);plini(r);qlini(r);scale0(r)
Lod1;C;Lod1;Grid;0.3;0.1;1


$$ElmLodlv;FID(a:40);OP(a:1);loc_name(a:40);fold_id(p);plini(r);qlini(r)
LodLv1;C;LodLv1;Grid;0.012;0.004


$$ElmShnt;FID(a:40);OP(a:1);loc_name(a:40);fold_id(p);shtype(i);qtotn(r);ushnm(r);ncapa(i);ncapx(i)
Sh1;C;Sh1;Grid;2;0.15;20;1;1


$$ElmCoup;FID(a:40);OP(a:1);loc_name(a:40);fold_id(p);aUsage(a:4);on_off(i)
Cp1;C;Cp1;Grid;cbk;1


$$ElmFoobar;FID(a:40);OP(a:1);loc_name(a:40);fold_id(p)
Fb1;C;Fb1;Grid


$$StaCubic;FID(a:40);OP(a:1);loc_name(a:40);fold_id(p);obj_bus(i);obj_id(p);cPhInfo(a:5)
CubX;C;CubX;Src;0;Ext;
CubL0;C;CubL0;Src;0;Ln1;
CubL1;C;CubL1;Mid;1;Ln1;
CubT0;C;CubT0;Mid;0;Tr1;
CubT1;C;CubT1;Lv;1;Tr1;
CubLd;C;CubLd;Lv;0;Lod1;
CubLdLv;C;CubLdLv;Lv;0;LodLv1;L2
CubSh;C;CubSh;Mid;0;Sh1;
CubC0;C;CubC0;Mid;0;Cp1;
CubC1;C;CubC1;MidB;1;Cp1;
